
This summary information was generated by ElastoDyn on 22-Mar-2024 at 16:20:00.


Turbine features:

            Upwind, 3-bladed rotor with rigid hub.
            The model has 17 of 24 DOFs active (enabled) at start-up.
 Enabled    Platform horizontal surge translation DOF 
 Enabled    Platform horizontal sway translation DOF 
 Enabled    Platform vertical heave translation DOF 
 Enabled    Platform roll tilt rotation DOF 
 Enabled    Platform pitch tilt rotation DOF 
 Enabled    Platform yaw rotation DOF 
 Disabled   1st tower fore-aft bending mode DOF 
 Disabled   1st tower side-to-side bending mode DOF 
 Disabled   2nd tower fore-aft bending mode DOF 
 Disabled   2nd tower side-to-side bending mode DOF 
 Disabled   Nacelle yaw DOF 
 Disabled   Rotor-furl DOF 
 Enabled    Variable speed generator DOF 
 Enabled    Drivetrain rotational-flexibility DOF 
 Disabled   Tail-furl DOF 
 Enabled    1st flapwise bending-mode DOF of blade 1 
 Enabled    1st edgewise bending-mode DOF of blade 1 
 Enabled    2nd flapwise bending-mode DOF of blade 1 
 Enabled    1st flapwise bending-mode DOF of blade 2 
 Enabled    1st edgewise bending-mode DOF of blade 2 
 Enabled    2nd flapwise bending-mode DOF of blade 2 
 Enabled    1st flapwise bending-mode DOF of blade 3 
 Enabled    1st edgewise bending-mode DOF of blade 3 
 Enabled    2nd flapwise bending-mode DOF of blade 3 


Time steps:

    Structural            (s)        0.01000000


Some calculated parameters:

    Hub-Height            (m)           118.999
    Flexible Tower Length (m)             0.010
    Flexible Blade Length (m)            86.400


Rotor mass properties:

    Rotor Mass            (kg)       230717.041
    Rotor Inertia         (kg-m^2)156348032.108
                                        Blade 1      Blade 2      Blade 3
                                        -------      -------      -------
    Mass                  (kg)        41732.347    41732.347    41732.347
    Second Mass Moment    (kg-m^2) 45671254.536 45671254.536 45671254.536
    First Mass Moment     (kg-m)    1090742.547  1090742.547  1090742.547
    Center of Mass        (m)            26.137       26.137       26.137


Additional mass properties:

    Tower-top Mass        (kg)       230717.041
    Tower Mass            (kg)            0.000
    Platform Mass         (kg)            0.000
    Mass Incl. Platform   (kg)       230717.041


Interpolated tower properties:

Node  TwFract   HNodes  DHNodes  TMassDen    FAStiff    SSStiff
 (-)      (-)      (m)      (m)    (kg/m)     (Nm^2)     (Nm^2)
   1    0.500    0.005    0.010     0.000  1.000E+12  1.000E+12


Interpolated blade 1 properties:

Node  BlFract   RNodes  DRNodes PitchAxis  StrcTwst  BMassDen    FlpStff    EdgStff
 (-)      (-)      (m)      (m)       (-)     (deg)    (kg/m)     (Nm^2)     (Nm^2)
   1    0.010    3.647    1.694     0.000     0.000  1190.382  6.200E+10  6.106E+10
   2    0.029    5.341    1.694     0.000     0.000  1195.006  6.243E+10  6.112E+10
   3    0.049    7.035    1.694     0.000     0.000  1193.896  6.219E+10  6.026E+10
   4    0.069    8.729    1.694     0.003     0.003  1156.156  5.867E+10  5.675E+10
   5    0.088   10.424    1.694     0.010    10.523  1097.797  5.199E+10  5.251E+10
   6    0.108   12.118    1.694     0.028    41.228  1032.413  4.222E+10  4.930E+10
   7    0.127   13.812    1.694     0.059    33.804   961.007  3.426E+10  4.268E+10
   8    0.147   15.506    1.694     0.095    24.460   901.251  2.732E+10  3.710E+10
   9    0.167   17.200    1.694     0.134    17.993   864.166  2.197E+10  3.336E+10
  10    0.186   18.894    1.694     0.162    13.444   827.752  1.803E+10  3.069E+10
  11    0.206   20.588    1.694     0.179    10.869   773.263  1.468E+10  2.740E+10
  12    0.225   22.282    1.694     0.178     8.839   734.673  1.261E+10  2.532E+10
  13    0.245   23.976    1.694     0.189     7.616   690.942  1.080E+10  2.292E+10
  14    0.265   25.671    1.694     0.200     6.802   655.366  9.354E+09  2.068E+10
  15    0.284   27.365    1.694     0.208     6.113   626.860  8.179E+09  1.883E+10
  16    0.304   29.059    1.694     0.214     4.954   595.059  6.950E+09  1.875E+10
  17    0.324   30.753    1.694     0.215     4.556   581.872  6.151E+09  1.774E+10
  18    0.343   32.447    1.694     0.220     4.276   567.595  5.462E+09  1.662E+10
  19    0.363   34.141    1.694     0.221     4.117   550.259  4.865E+09  1.521E+10
  20    0.382   35.835    1.694     0.223     3.952   532.101  4.332E+09  1.374E+10
  21    0.402   37.529    1.694     0.225     3.692   513.239  3.862E+09  1.260E+10
  22    0.422   39.224    1.694     0.224     3.401   497.354  3.425E+09  1.164E+10
  23    0.441   40.918    1.694     0.225     3.140   480.791  3.031E+09  1.064E+10
  24    0.461   42.612    1.694     0.224     2.924   463.729  2.675E+09  9.632E+09
  25    0.480   44.306    1.694     0.224     2.693   445.233  2.354E+09  8.677E+09
  26    0.500   46.000    1.694     0.224     2.458   428.620  2.071E+09  7.864E+09
  27    0.520   47.694    1.694     0.223     2.293   406.630  1.813E+09  6.877E+09
  28    0.539   49.388    1.694     0.223     2.100   389.023  1.588E+09  6.134E+09
  29    0.559   51.082    1.694     0.223     1.909   370.917  1.395E+09  5.496E+09
  30    0.578   52.776    1.694     0.223     1.744   352.226  1.218E+09  4.853E+09
  31    0.598   54.471    1.694     0.222     1.606   333.152  1.066E+09  4.216E+09
  32    0.618   56.165    1.694     0.222     1.471   316.171  9.331E+08  3.706E+09
  33    0.637   57.859    1.694     0.222     1.340   298.867  8.156E+08  3.240E+09
  34    0.657   59.553    1.694     0.221     1.231   280.254  7.103E+08  2.792E+09
  35    0.676   61.247    1.694     0.220     1.138   263.552  6.166E+08  2.418E+09
  36    0.696   62.941    1.694     0.220     1.045   246.326  5.346E+08  2.078E+09
  37    0.716   64.635    1.694     0.219     0.956   228.906  4.605E+08  1.780E+09
  38    0.735   66.329    1.694     0.217     0.892   211.525  3.929E+08  1.516E+09
  39    0.755   68.024    1.694     0.216     0.822   194.454  3.322E+08  1.282E+09
  40    0.775   69.718    1.694     0.215     0.760   179.041  2.788E+08  1.089E+09
  41    0.794   71.412    1.694     0.215     0.707   163.157  2.322E+08  9.109E+08
  42    0.814   73.106    1.694     0.214     0.661   147.773  1.920E+08  7.583E+08
  43    0.833   74.800    1.694     0.212     0.629   133.508  1.573E+08  6.304E+08
  44    0.853   76.494    1.694     0.210     0.588   118.051  1.261E+08  5.159E+08
  45    0.873   78.188    1.694     0.208     0.558   103.355  9.867E+07  4.195E+08
  46    0.892   79.882    1.694     0.206     0.551    90.360  7.610E+07  3.354E+08
  47    0.912   81.576    1.694     0.203     0.563    77.585  5.671E+07  2.694E+08
  48    0.931   83.271    1.694     0.201     0.563    63.780  3.908E+07  1.969E+08
  49    0.951   84.965    1.694     0.199     0.621    50.126  2.398E+07  1.378E+08
  50    0.971   86.659    1.694     0.196     0.718    36.336  1.169E+07  8.399E+07
  51    0.990   88.353    1.694     0.203     0.849    21.820  3.297E+06  3.168E+07


Interpolated blade 2 properties:

Node  BlFract   RNodes  DRNodes PitchAxis  StrcTwst  BMassDen    FlpStff    EdgStff
 (-)      (-)      (m)      (m)       (-)     (deg)    (kg/m)     (Nm^2)     (Nm^2)
   1    0.010    3.647    1.694     0.000     0.000  1190.382  6.200E+10  6.106E+10
   2    0.029    5.341    1.694     0.000     0.000  1195.006  6.243E+10  6.112E+10
   3    0.049    7.035    1.694     0.000     0.000  1193.896  6.219E+10  6.026E+10
   4    0.069    8.729    1.694     0.003     0.003  1156.156  5.867E+10  5.675E+10
   5    0.088   10.424    1.694     0.010    10.523  1097.797  5.199E+10  5.251E+10
   6    0.108   12.118    1.694     0.028    41.228  1032.413  4.222E+10  4.930E+10
   7    0.127   13.812    1.694     0.059    33.804   961.007  3.426E+10  4.268E+10
   8    0.147   15.506    1.694     0.095    24.460   901.251  2.732E+10  3.710E+10
   9    0.167   17.200    1.694     0.134    17.993   864.166  2.197E+10  3.336E+10
  10    0.186   18.894    1.694     0.162    13.444   827.752  1.803E+10  3.069E+10
  11    0.206   20.588    1.694     0.179    10.869   773.263  1.468E+10  2.740E+10
  12    0.225   22.282    1.694     0.178     8.839   734.673  1.261E+10  2.532E+10
  13    0.245   23.976    1.694     0.189     7.616   690.942  1.080E+10  2.292E+10
  14    0.265   25.671    1.694     0.200     6.802   655.366  9.354E+09  2.068E+10
  15    0.284   27.365    1.694     0.208     6.113   626.860  8.179E+09  1.883E+10
  16    0.304   29.059    1.694     0.214     4.954   595.059  6.950E+09  1.875E+10
  17    0.324   30.753    1.694     0.215     4.556   581.872  6.151E+09  1.774E+10
  18    0.343   32.447    1.694     0.220     4.276   567.595  5.462E+09  1.662E+10
  19    0.363   34.141    1.694     0.221     4.117   550.259  4.865E+09  1.521E+10
  20    0.382   35.835    1.694     0.223     3.952   532.101  4.332E+09  1.374E+10
  21    0.402   37.529    1.694     0.225     3.692   513.239  3.862E+09  1.260E+10
  22    0.422   39.224    1.694     0.224     3.401   497.354  3.425E+09  1.164E+10
  23    0.441   40.918    1.694     0.225     3.140   480.791  3.031E+09  1.064E+10
  24    0.461   42.612    1.694     0.224     2.924   463.729  2.675E+09  9.632E+09
  25    0.480   44.306    1.694     0.224     2.693   445.233  2.354E+09  8.677E+09
  26    0.500   46.000    1.694     0.224     2.458   428.620  2.071E+09  7.864E+09
  27    0.520   47.694    1.694     0.223     2.293   406.630  1.813E+09  6.877E+09
  28    0.539   49.388    1.694     0.223     2.100   389.023  1.588E+09  6.134E+09
  29    0.559   51.082    1.694     0.223     1.909   370.917  1.395E+09  5.496E+09
  30    0.578   52.776    1.694     0.223     1.744   352.226  1.218E+09  4.853E+09
  31    0.598   54.471    1.694     0.222     1.606   333.152  1.066E+09  4.216E+09
  32    0.618   56.165    1.694     0.222     1.471   316.171  9.331E+08  3.706E+09
  33    0.637   57.859    1.694     0.222     1.340   298.867  8.156E+08  3.240E+09
  34    0.657   59.553    1.694     0.221     1.231   280.254  7.103E+08  2.792E+09
  35    0.676   61.247    1.694     0.220     1.138   263.552  6.166E+08  2.418E+09
  36    0.696   62.941    1.694     0.220     1.045   246.326  5.346E+08  2.078E+09
  37    0.716   64.635    1.694     0.219     0.956   228.906  4.605E+08  1.780E+09
  38    0.735   66.329    1.694     0.217     0.892   211.525  3.929E+08  1.516E+09
  39    0.755   68.024    1.694     0.216     0.822   194.454  3.322E+08  1.282E+09
  40    0.775   69.718    1.694     0.215     0.760   179.041  2.788E+08  1.089E+09
  41    0.794   71.412    1.694     0.215     0.707   163.157  2.322E+08  9.109E+08
  42    0.814   73.106    1.694     0.214     0.661   147.773  1.920E+08  7.583E+08
  43    0.833   74.800    1.694     0.212     0.629   133.508  1.573E+08  6.304E+08
  44    0.853   76.494    1.694     0.210     0.588   118.051  1.261E+08  5.159E+08
  45    0.873   78.188    1.694     0.208     0.558   103.355  9.867E+07  4.195E+08
  46    0.892   79.882    1.694     0.206     0.551    90.360  7.610E+07  3.354E+08
  47    0.912   81.576    1.694     0.203     0.563    77.585  5.671E+07  2.694E+08
  48    0.931   83.271    1.694     0.201     0.563    63.780  3.908E+07  1.969E+08
  49    0.951   84.965    1.694     0.199     0.621    50.126  2.398E+07  1.378E+08
  50    0.971   86.659    1.694     0.196     0.718    36.336  1.169E+07  8.399E+07
  51    0.990   88.353    1.694     0.203     0.849    21.820  3.297E+06  3.168E+07


Interpolated blade 3 properties:

Node  BlFract   RNodes  DRNodes PitchAxis  StrcTwst  BMassDen    FlpStff    EdgStff
 (-)      (-)      (m)      (m)       (-)     (deg)    (kg/m)     (Nm^2)     (Nm^2)
   1    0.010    3.647    1.694     0.000     0.000  1190.382  6.200E+10  6.106E+10
   2    0.029    5.341    1.694     0.000     0.000  1195.006  6.243E+10  6.112E+10
   3    0.049    7.035    1.694     0.000     0.000  1193.896  6.219E+10  6.026E+10
   4    0.069    8.729    1.694     0.003     0.003  1156.156  5.867E+10  5.675E+10
   5    0.088   10.424    1.694     0.010    10.523  1097.797  5.199E+10  5.251E+10
   6    0.108   12.118    1.694     0.028    41.228  1032.413  4.222E+10  4.930E+10
   7    0.127   13.812    1.694     0.059    33.804   961.007  3.426E+10  4.268E+10
   8    0.147   15.506    1.694     0.095    24.460   901.251  2.732E+10  3.710E+10
   9    0.167   17.200    1.694     0.134    17.993   864.166  2.197E+10  3.336E+10
  10    0.186   18.894    1.694     0.162    13.444   827.752  1.803E+10  3.069E+10
  11    0.206   20.588    1.694     0.179    10.869   773.263  1.468E+10  2.740E+10
  12    0.225   22.282    1.694     0.178     8.839   734.673  1.261E+10  2.532E+10
  13    0.245   23.976    1.694     0.189     7.616   690.942  1.080E+10  2.292E+10
  14    0.265   25.671    1.694     0.200     6.802   655.366  9.354E+09  2.068E+10
  15    0.284   27.365    1.694     0.208     6.113   626.860  8.179E+09  1.883E+10
  16    0.304   29.059    1.694     0.214     4.954   595.059  6.950E+09  1.875E+10
  17    0.324   30.753    1.694     0.215     4.556   581.872  6.151E+09  1.774E+10
  18    0.343   32.447    1.694     0.220     4.276   567.595  5.462E+09  1.662E+10
  19    0.363   34.141    1.694     0.221     4.117   550.259  4.865E+09  1.521E+10
  20    0.382   35.835    1.694     0.223     3.952   532.101  4.332E+09  1.374E+10
  21    0.402   37.529    1.694     0.225     3.692   513.239  3.862E+09  1.260E+10
  22    0.422   39.224    1.694     0.224     3.401   497.354  3.425E+09  1.164E+10
  23    0.441   40.918    1.694     0.225     3.140   480.791  3.031E+09  1.064E+10
  24    0.461   42.612    1.694     0.224     2.924   463.729  2.675E+09  9.632E+09
  25    0.480   44.306    1.694     0.224     2.693   445.233  2.354E+09  8.677E+09
  26    0.500   46.000    1.694     0.224     2.458   428.620  2.071E+09  7.864E+09
  27    0.520   47.694    1.694     0.223     2.293   406.630  1.813E+09  6.877E+09
  28    0.539   49.388    1.694     0.223     2.100   389.023  1.588E+09  6.134E+09
  29    0.559   51.082    1.694     0.223     1.909   370.917  1.395E+09  5.496E+09
  30    0.578   52.776    1.694     0.223     1.744   352.226  1.218E+09  4.853E+09
  31    0.598   54.471    1.694     0.222     1.606   333.152  1.066E+09  4.216E+09
  32    0.618   56.165    1.694     0.222     1.471   316.171  9.331E+08  3.706E+09
  33    0.637   57.859    1.694     0.222     1.340   298.867  8.156E+08  3.240E+09
  34    0.657   59.553    1.694     0.221     1.231   280.254  7.103E+08  2.792E+09
  35    0.676   61.247    1.694     0.220     1.138   263.552  6.166E+08  2.418E+09
  36    0.696   62.941    1.694     0.220     1.045   246.326  5.346E+08  2.078E+09
  37    0.716   64.635    1.694     0.219     0.956   228.906  4.605E+08  1.780E+09
  38    0.735   66.329    1.694     0.217     0.892   211.525  3.929E+08  1.516E+09
  39    0.755   68.024    1.694     0.216     0.822   194.454  3.322E+08  1.282E+09
  40    0.775   69.718    1.694     0.215     0.760   179.041  2.788E+08  1.089E+09
  41    0.794   71.412    1.694     0.215     0.707   163.157  2.322E+08  9.109E+08
  42    0.814   73.106    1.694     0.214     0.661   147.773  1.920E+08  7.583E+08
  43    0.833   74.800    1.694     0.212     0.629   133.508  1.573E+08  6.304E+08
  44    0.853   76.494    1.694     0.210     0.588   118.051  1.261E+08  5.159E+08
  45    0.873   78.188    1.694     0.208     0.558   103.355  9.867E+07  4.195E+08
  46    0.892   79.882    1.694     0.206     0.551    90.360  7.610E+07  3.354E+08
  47    0.912   81.576    1.694     0.203     0.563    77.585  5.671E+07  2.694E+08
  48    0.931   83.271    1.694     0.201     0.563    63.780  3.908E+07  1.969E+08
  49    0.951   84.965    1.694     0.199     0.621    50.126  2.398E+07  1.378E+08
  50    0.971   86.659    1.694     0.196     0.718    36.336  1.169E+07  8.399E+07
  51    0.990   88.353    1.694     0.203     0.849    21.820  3.297E+06  3.168E+07


Requested Outputs:


 Col   Parameter            Units               
 ---   ---------------      ---------------     
   0   Time                 (s)                 
   1   TipDxc1              (m)                 
   2   TipDyc1              (m)                 
   3   TipDxc2              (m)                 
   4   TipDyc2              (m)                 
   5   TipDxc3              (m)                 
   6   TipDyc3              (m)                 
   7   BldPitch1            (deg)               
   8   BldPitch2            (deg)               
   9   BldPitch3            (deg)               
  10   Azimuth              (deg)               
  11   RotSpeed             (rpm)               
  12   RotAccel             (deg/s^2)           
  13   LSSGagP              (deg)               
  14   LSSGagV              (rpm)               
  15   LSSGagA              (deg/s^2)           
  16   GenSpeed             (rpm)               
  17   GenAccel             (deg/s^2)           
  18   RootFxc1             (kN)                
  19   RootFyc1             (kN)                
  20   RootFzc1             (kN)                
  21   RootFxb1             (kN)                
  22   RootFyb1             (kN)                
  23   RootMxc1             (kN-m)              
  24   RootMyc1             (kN-m)              
  25   RootMzc1             (kN-m)              
  26   RootMxb1             (kN-m)              
  27   RootMyb1             (kN-m)              
  28   RootFxc2             (kN)                
  29   RootFyc2             (kN)                
  30   RootFzc2             (kN)                
  31   RootFxb2             (kN)                
  32   RootFyb2             (kN)                
  33   RootMxc2             (kN-m)              
  34   RootMyc2             (kN-m)              
  35   RootMzc2             (kN-m)              
  36   RootMxb2             (kN-m)              
  37   RootMyb2             (kN-m)              
  38   RootFxc3             (kN)                
  39   RootFyc3             (kN)                
  40   RootFzc3             (kN)                
  41   RootFxb3             (kN)                
  42   RootFyb3             (kN)                
  43   RootMxc3             (kN-m)              
  44   RootMyc3             (kN-m)              
  45   RootMzc3             (kN-m)              
  46   RootMxb3             (kN-m)              
  47   RootMyb3             (kN-m)              
  48   RotThrust            (kN)                
  49   LSShftFys            (kN)                
  50   LSShftFzs            (kN)                
  51   LSShftTq             (kN-m)              
  52   LSSTipMys            (kN-m)              
  53   LSSTipMzs            (kN-m)              
  54   LSSGagMys            (kN-m)              
  55   LSSGagMzs            (kN-m)              


  Requested Output Channels at each blade station:
 Col   Parameter            Units               
 ---   ---------------      ---------------     
